# generated using pymatgen
data_Ca5(PO4)3
_symmetry_space_group_name_H-M   'P 1'
_cell_length_a   9.54723975
_cell_length_b   9.54723975
_cell_length_c   6.88948854
_cell_angle_alpha   90.00000000
_cell_angle_beta   90.00000000
_cell_angle_gamma   120.00000000
_symmetry_Int_Tables_number   1
_chemical_formula_structural   Ca5(PO4)3
_chemical_formula_sum   'Ca10 P6 O24'
_cell_volume   543.84265964
_cell_formula_units_Z   2
loop_
 _symmetry_equiv_pos_site_id
 _symmetry_equiv_pos_as_xyz
  1  'x, y, z'
loop_
 _atom_site_type_symbol
 _atom_site_label
 _atom_site_symmetry_multiplicity
 _atom_site_fract_x
 _atom_site_fract_y
 _atom_site_fract_z
 _atom_site_occupancy
  Ca  Ca1  1  0.003764  0.250892  0.250000  1.0
  Ca  Ca2  1  0.996236  0.749108  0.750000  1.0
  Ca  Ca3  1  0.752872  0.003764  0.750000  1.0
  Ca  Ca4  1  0.247128  0.996236  0.250000  1.0
  Ca  Ca5  1  0.749108  0.752872  0.250000  1.0
  Ca  Ca6  1  0.250892  0.247128  0.750000  1.0
  Ca  Ca7  1  0.333333  0.666667  0.000892  1.0
  Ca  Ca8  1  0.666667  0.333333  0.999108  1.0
  Ca  Ca9  1  0.666667  0.333333  0.500892  1.0
  Ca  Ca10  1  0.333333  0.666667  0.499108  1.0
  P  P11  1  0.029796  0.398955  0.750000  1.0
  P  P12  1  0.970204  0.601045  0.250000  1.0
  P  P13  1  0.630841  0.029796  0.250000  1.0
  P  P14  1  0.369159  0.970204  0.750000  1.0
  P  P15  1  0.601045  0.630841  0.750000  1.0
  P  P16  1  0.398955  0.369159  0.250000  1.0
  O  O17  1  0.085719  0.342850  0.569118  1.0
  O  O18  1  0.914281  0.657150  0.430882  1.0
  O  O19  1  0.742869  0.085719  0.069118  1.0
  O  O20  1  0.257131  0.914281  0.930882  1.0
  O  O21  1  0.657150  0.742869  0.569118  1.0
  O  O22  1  0.342850  0.257131  0.430882  1.0
  O  O23  1  0.914281  0.657150  0.069118  1.0
  O  O24  1  0.085719  0.342850  0.930882  1.0
  O  O25  1  0.257131  0.914281  0.569118  1.0
  O  O26  1  0.742869  0.085719  0.430882  1.0
  O  O27  1  0.342850  0.257131  0.069118  1.0
  O  O28  1  0.657150  0.742869  0.930882  1.0
  O  O29  1  0.121996  0.588063  0.750000  1.0
  O  O30  1  0.878004  0.411937  0.250000  1.0
  O  O31  1  0.533933  0.121996  0.250000  1.0
  O  O32  1  0.466067  0.878004  0.750000  1.0
  O  O33  1  0.411937  0.533933  0.750000  1.0
  O  O34  1  0.588063  0.466067  0.250000  1.0
  O  O35  1  0.155950  0.671361  0.250000  1.0
  O  O36  1  0.844050  0.328639  0.750000  1.0
  O  O37  1  0.484589  0.155950  0.750000  1.0
  O  O38  1  0.515411  0.844050  0.250000  1.0
  O  O39  1  0.328639  0.484589  0.250000  1.0
  O  O40  1  0.671361  0.515411  0.750000  1.0
